/*--------------------------------*- C++ -*----------------------------------*\
| Generated dynamic-mesh face zones                                        |
\*---------------------------------------------------------------------------*/
FoamFile
{
    version     2.0;
    format      ascii;
    class       dictionary;
    object      topoSetDict;
}

// Generated by generate_dodecagon_geometry.py. Do not edit by hand.
actions
(
    {
        name    reservoirTopFaces;
        type    faceSet;
        action  new;
        source  patchToFace;
        sourceInfo
        {
            name pistonWall;
        }
    }

    {
        name    reservoirTop;
        type    faceZoneSet;
        action  new;
        source  setToFaceZone;
        sourceInfo
        {
            set reservoirTopFaces;
        }
    }

    {
        name    reservoirBottomFaces;
        type    faceSet;
        action  new;
        source  boxToFace;
        sourceInfo
        {
            box
                (-0.040001 0.049999 -0.040001)
                (0.040001 0.050001 0.040001);
        }
    }

    {
        name    reservoirBottom;
        type    faceZoneSet;
        action  new;
        source  setToFaceZone;
        sourceInfo
        {
            set reservoirBottomFaces;
        }
    }
);

// ************************************************************************* //
