/*--------------------------------*- C++ -*----------------------------------*\
| Generated regular-dodecagon contraction mesh                              |
\*---------------------------------------------------------------------------*/
FoamFile
{
    version     2.0;
    format      ascii;
    class       dictionary;
    object      blockMeshDict;
}

convertToMeters 1;

// Generated by generate_dodecagon_geometry.py. Do not edit by hand.
// Dh_small=0.02, Dh_large=0.08
// vertices=13563, blocks=6800, cells=660000

vertices
(
    (-0.00732050807568877 0 -0.00732050807568877) // 0
    (-0.00761187905358766 0 -0.00681583873811688) // 1
    (-0.00792740578363098 0 -0.00626933041053577) // 2
    (-0.00827022207233517 0 -0.00567555518083792) // 3
    (-0.00864402830660715 0 -0.00502810379089286) // 4
    (-0.00905322555970238 0 -0.00431935335821429) // 5
    (-0.0095030896803636 0 -0.00354016584472677) // 6
    (-0.01 0 -0.00267949192431123) // 7
    (-0.01 0 -0.00178632794954082) // 8
    (-0.01 0 -0.000893163974770409) // 9
    (-0.01 0 0) // 10
    (-0.01 0 0.000893163974770409) // 11
    (-0.01 0 0.00178632794954082) // 12
    (-0.01 0 0.00267949192431123) // 13
    (-0.0095030896803636 0 0.00354016584472677) // 14
    (-0.00905322555970238 0 0.00431935335821429) // 15
    (-0.00864402830660714 0 0.00502810379089286) // 16
    (-0.00827022207233517 0 0.00567555518083792) // 17
    (-0.00792740578363098 0 0.00626933041053577) // 18
    (-0.00761187905358766 0 0.00681583873811688) // 19
    (-0.00732050807568877 0 0.00732050807568877) // 20
    (-0.00681583873811688 0 -0.00761187905358766) // 21
    (-0.00655493895445699 0 -0.00655493895445699) // 22
    (-0.006847670721004 0 -0.00604791266180818) // 23
    (-0.00716777043772397 0 -0.00549348368896079) // 24
    (-0.00751926432191511 0 -0.00488467842299202) // 25
    (-0.00790700906818716 0 -0.00421308482208092) // 26
    (-0.00833691761606331 0 -0.00346846137455126) // 27
    (-0.00881626280292404 0 -0.00263821115654489) // 28
    (-0.00895421313204446 0 -0.00178632794954082) // 29
    (-0.00895421313204446 0 -0.000893163974770409) // 30
    (-0.00895421313204446 0 0) // 31
    (-0.00895421313204446 0 0.000893163974770409) // 32
    (-0.00895421313204446 0 0.00178632794954082) // 33
    (-0.00881626280292404 0 0.00263821115654489) // 34
    (-0.00833691761606331 0 0.00346846137455126) // 35
    (-0.00790700906818716 0 0.00421308482208092) // 36
    (-0.00751926432191511 0 0.00488467842299202) // 37
    (-0.00716777043772397 0 0.00549348368896079) // 38
    (-0.006847670721004 0 0.00604791266180818) // 39
    (-0.00655493895445699 0 0.00655493895445699) // 40
    (-0.00681583873811688 0 0.00761187905358766) // 41
    (-0.00626933041053577 0 -0.00792740578363098) // 42
    (-0.00604791266180818 0 -0.006847670721004) // 43
    (-0.00578936983322521 0 -0.00578936983322521) // 44
    (-0.00608384058737118 0 -0.00527933152570129) // 45
    (-0.00640987262182433 0 -0.00471462747713337) // 46
    (-0.00677282734535711 0 -0.00408597145512749) // 47
    (-0.00717935340012028 0 -0.00338184767367715) // 48
    (-0.00763779764903034 0 -0.00258779894212717) // 49
    (-0.00790842626408892 0 -0.00178632794954082) // 50
    (-0.00790842626408892 0 -0.000893163974770409) // 51
    (-0.00790842626408892 0 0) // 52
    (-0.00790842626408892 0 0.000893163974770409) // 53
    (-0.00790842626408892 0 0.00178632794954082) // 54
    (-0.00763779764903034 0 0.00258779894212717) // 55
    (-0.00717935340012028 0 0.00338184767367715) // 56
    (-0.00677282734535711 0 0.00408597145512749) // 57
    (-0.00640987262182433 0 0.00471462747713337) // 58
    (-0.00608384058737118 0 0.00527933152570129) // 59
    (-0.00578936983322522 0 0.00578936983322522) // 60
    (-0.00604791266180818 0 0.006847670721004) // 61
    (-0.00626933041053577 0 0.00792740578363098) // 62
    (-0.00567555518083792 0 -0.00827022207233517) // 63
    (-0.00549348368896079 0 -0.00716777043772397) // 64
    (-0.00527933152570129 0 -0.00608384058737117) // 65
    (-0.00502380071199343 0 -0.00502380071199343) // 66
    (-0.0053205717658173 0 -0.00450977816855474) // 67
    (-0.00565460641422662 0 -0.00393121318602139) // 68
    (-0.00603339321977859 0 -0.00327513519356867) // 69
    (-0.00646657136343634 0 -0.00252484864002508) // 70
    (-0.00686263939613338 0 -0.00178632794954082) // 71
    (-0.00686263939613338 0 -0.000893163974770409) // 72
    (-0.00686263939613338 0 0) // 73
    (-0.00686263939613338 0 0.000893163974770409) // 74
    (-0.00686263939613338 0 0.00178632794954082) // 75
    (-0.00646657136343634 0 0.00252484864002508) // 76
    (-0.00603339321977859 0 0.00327513519356867) // 77
    (-0.00565460641422662 0 0.00393121318602139) // 78
    (-0.0053205717658173 0 0.00450977816855474) // 79
    (-0.00502380071199344 0 0.00502380071199344) // 80
    (-0.00527933152570129 0 0.00608384058737118) // 81
    (-0.00549348368896079 0 0.00716777043772397) // 82
    (-0.00567555518083792 0 0.00827022207233517) // 83
    (-0.00502810379089286 0 -0.00864402830660715) // 84
    (-0.00488467842299202 0 -0.00751926432191511) // 85
    (-0.00471462747713337 0 -0.00640987262182433) // 86
    (-0.00450977816855474 0 -0.0053205717658173) // 87
    (-0.00425823159076166 0 -0.00425823159076166) // 88
    (-0.00455818833002226 0 -0.00373869127828959) // 89
    (-0.00490360631126496 0 -0.00314040978492937) // 90
    (-0.00530566805510932 0 -0.0024440184168112) // 91
    (-0.00570518470131929 0 -0.001752035287106) // 92
    (-0.00581685252817784 0 -0.000893163974770409) // 93
    (-0.00581685252817784 0 0) // 94
    (-0.00581685252817784 0 0.000893163974770409) // 95
    (-0.00570518470131929 0 0.001752035287106) // 96
    (-0.00530566805510932 0 0.0024440184168112) // 97
    (-0.00490360631126496 0 0.00314040978492937) // 98
    (-0.00455818833002226 0 0.00373869127828959) // 99
    (-0.00425823159076166 0 0.00425823159076166) // 100
    (-0.00450977816855474 0 0.0053205717658173) // 101
    (-0.00471462747713337 0 0.00640987262182433) // 102
    (-0.00488467842299202 0 0.00751926432191511) // 103
    (-0.00502810379089286 0 0.00864402830660715) // 104
    (-0.00431935335821429 0 -0.00905322555970238) // 105
    (-0.00421308482208092 0 -0.00790700906818716) // 106
    (-0.00408597145512749 0 -0.00677282734535711) // 107
    (-0.00393121318602139 0 -0.00565460641422662) // 108
    (-0.00373869127828959 0 -0.00455818833002226) // 109
    (-0.00349266246952988 0 -0.00349266246952988) // 110
    (-0.00379732327826852 0 -0.00296497446971952) // 111
    (-0.00416021379844229 0 -0.00233642965119345) // 112
    (-0.00452993841120016 0 -0.0016960478370881) // 113
    (-0.00477106566022231 0 -0.000893163974770409) // 114
    (-0.00477106566022231 0 0) // 115
    (-0.00477106566022231 0 0.000893163974770409) // 116
    (-0.00452993841120016 0 0.0016960478370881) // 117
    (-0.00416021379844229 0 0.00233642965119345) // 118
    (-0.00379732327826852 0 0.00296497446971952) // 119
    (-0.00349266246952988 0 0.00349266246952988) // 120
    (-0.00373869127828959 0 0.00455818833002227) // 121
    (-0.00393121318602139 0 0.00565460641422662) // 122
    (-0.00408597145512749 0 0.00677282734535711) // 123
    (-0.00421308482208092 0 0.00790700906818716) // 124
    (-0.00431935335821429 0 0.00905322555970238) // 125
    (-0.00354016584472677 0 -0.0095030896803636) // 126
    (-0.00346846137455126 0 -0.00833691761606331) // 127
    (-0.00338184767367715 0 -0.00717935340012028) // 128
    (-0.00327513519356867 0 -0.00603339321977859) // 129
    (-0.00314040978492937 0 -0.00490360631126496) // 130
    (-0.00296497446971952 0 -0.00379732327826852) // 131
    (-0.0027270933482981 0 -0.0027270933482981) // 132
    (-0.00303940180920791 0 -0.00218615922636867) // 133
    (-0.00336890575657173 0 -0.00161544164824003) // 134
    (-0.00372527879226677 0 -0.000893163974770409) // 135
    (-0.00372527879226677 0 0) // 136
    (-0.00372527879226677 0 0.000893163974770409) // 137
    (-0.00336890575657173 0 0.00161544164824003) // 138
    (-0.00303940180920791 0 0.00218615922636867) // 139
    (-0.0027270933482981 0 0.0027270933482981) // 140
    (-0.00296497446971952 0 0.00379732327826852) // 141
    (-0.00314040978492937 0 0.00490360631126496) // 142
    (-0.00327513519356867 0 0.00603339321977859) // 143
    (-0.00338184767367715 0 0.00717935340012028) // 144
    (-0.00346846137455126 0 0.00833691761606332) // 145
    (-0.00354016584472677 0 0.0095030896803636) // 146
    (-0.00267949192431123 0 -0.01) // 147
    (-0.00263821115654489 0 -0.00881626280292404) // 148
    (-0.00258779894212717 0 -0.00763779764903034) // 149
    (-0.00252484864002508 0 -0.00646657136343634) // 150
    (-0.0024440184168112 0 -0.00530566805510932) // 151
    (-0.00233642965119345 0 -0.00416021379844229) // 152
    (-0.00218615922636867 0 -0.00303940180920791) // 153
    (-0.00196152422706632 0 -0.00196152422706632) // 154
    (-0.00223410381013309 0 -0.00148940254008873) // 155
    (-0.00259466689149725 0 -0.000864888963832416) // 156
    (-0.00267949192431123 0 0) // 157
    (-0.00259466689149725 0 0.000864888963832416) // 158
    (-0.00223410381013309 0 0.00148940254008873) // 159
    (-0.00196152422706632 0 0.00196152422706632) // 160
    (-0.00218615922636867 0 0.00303940180920791) // 161
    (-0.00233642965119345 0 0.00416021379844229) // 162
    (-0.0024440184168112 0 0.00530566805510932) // 163
    (-0.00252484864002508 0 0.00646657136343634) // 164
    (-0.00258779894212717 0 0.00763779764903034) // 165
    (-0.00263821115654489 0 0.00881626280292404) // 166
    (-0.00267949192431123 0 0.01) // 167
    (-0.00178632794954082 0 -0.01) // 168
    (-0.00178632794954082 0 -0.00895421313204446) // 169
    (-0.00178632794954082 0 -0.00790842626408892) // 170
    (-0.00178632794954082 0 -0.00686263939613338) // 171
    (-0.001752035287106 0 -0.00570518470131929) // 172
    (-0.0016960478370881 0 -0.00452993841120016) // 173
    (-0.00161544164824003 0 -0.00336890575657173) // 174
    (-0.00148940254008873 0 -0.00223410381013309) // 175
    (-0.00130768281804421 0 -0.00130768281804421) // 176
    (-0.00160061584931972 0 -0.000800307924659862) // 177
    (-0.00178632794954082 0 0) // 178
    (-0.00160061584931972 0 0.000800307924659862) // 179
    (-0.00130768281804421 0 0.00130768281804421) // 180
    (-0.00148940254008873 0 0.00223410381013309) // 181
    (-0.00161544164824003 0 0.00336890575657173) // 182
    (-0.0016960478370881 0 0.00452993841120016) // 183
    (-0.001752035287106 0 0.00570518470131929) // 184
    (-0.00178632794954082 0 0.00686263939613338) // 185
    (-0.00178632794954082 0 0.00790842626408892) // 186
    (-0.00178632794954082 0 0.00895421313204446) // 187
    (-0.00178632794954082 0 0.01) // 188
    (-0.000893163974770409 0 -0.01) // 189
    (-0.000893163974770409 0 -0.00895421313204446) // 190
    (-0.000893163974770409 0 -0.00790842626408892) // 191
    (-0.000893163974770409 0 -0.00686263939613338) // 192
    (-0.000893163974770409 0 -0.00581685252817784) // 193
    (-0.000893163974770409 0 -0.00477106566022231) // 194
    (-0.000893163974770409 0 -0.00372527879226677) // 195
    (-0.000864888963832416 0 -0.00259466689149725) // 196
    (-0.000800307924659862 0 -0.00160061584931972) // 197
    (-0.000653841409022106 0 -0.000653841409022106) // 198
    (-0.000893163974770409 0 0) // 199
    (-0.000653841409022106 0 0.000653841409022106) // 200
    (-0.000800307924659862 0 0.00160061584931972) // 201
    (-0.000864888963832416 0 0.00259466689149725) // 202
    (-0.000893163974770409 0 0.00372527879226677) // 203
    (-0.000893163974770409 0 0.00477106566022231) // 204
    (-0.000893163974770409 0 0.00581685252817785) // 205
    (-0.000893163974770409 0 0.00686263939613338) // 206
    (-0.000893163974770409 0 0.00790842626408892) // 207
    (-0.000893163974770409 0 0.00895421313204446) // 208
    (-0.000893163974770409 0 0.01) // 209
    (0 0 -0.01) // 210
    (0 0 -0.00895421313204446) // 211
    (0 0 -0.00790842626408892) // 212
    (0 0 -0.00686263939613338) // 213
    (0 0 -0.00581685252817784) // 214
    (0 0 -0.00477106566022231) // 215
    (0 0 -0.00372527879226677) // 216
    (0 0 -0.00267949192431123) // 217
    (0 0 -0.00178632794954082) // 218
    (0 0 -0.000893163974770409) // 219
    (0 0 0) // 220
    (0 0 0.000893163974770409) // 221
    (0 0 0.00178632794954082) // 222
    (0 0 0.00267949192431123) // 223
    (0 0 0.00372527879226677) // 224
    (0 0 0.00477106566022231) // 225
    (0 0 0.00581685252817785) // 226
    (0 0 0.00686263939613338) // 227
    (0 0 0.00790842626408892) // 228
    (0 0 0.00895421313204446) // 229
    (0 0 0.01) // 230
    (0.000893163974770409 0 -0.01) // 231
    (0.000893163974770409 0 -0.00895421313204446) // 232
    (0.000893163974770409 0 -0.00790842626408892) // 233
    (0.000893163974770409 0 -0.00686263939613338) // 234
    (0.000893163974770409 0 -0.00581685252817784) // 235
    (0.000893163974770409 0 -0.00477106566022231) // 236
    (0.000893163974770409 0 -0.00372527879226677) // 237
    (0.000864888963832416 0 -0.00259466689149725) // 238
    (0.000800307924659862 0 -0.00160061584931972) // 239
    (0.000653841409022106 0 -0.000653841409022106) // 240
    (0.000893163974770409 0 0) // 241
    (0.000653841409022106 0 0.000653841409022106) // 242
    (0.000800307924659862 0 0.00160061584931972) // 243
    (0.000864888963832416 0 0.00259466689149725) // 244
    (0.000893163974770409 0 0.00372527879226677) // 245
    (0.000893163974770409 0 0.00477106566022231) // 246
    (0.000893163974770409 0 0.00581685252817785) // 247
    (0.000893163974770409 0 0.00686263939613338) // 248
    (0.000893163974770409 0 0.00790842626408892) // 249
    (0.000893163974770409 0 0.00895421313204446) // 250
    (0.000893163974770409 0 0.01) // 251
    (0.00178632794954082 0 -0.01) // 252
    (0.00178632794954082 0 -0.00895421313204446) // 253
    (0.00178632794954082 0 -0.00790842626408892) // 254
    (0.00178632794954082 0 -0.00686263939613338) // 255
    (0.001752035287106 0 -0.00570518470131929) // 256
    (0.0016960478370881 0 -0.00452993841120016) // 257
    (0.00161544164824003 0 -0.00336890575657173) // 258
    (0.00148940254008873 0 -0.00223410381013309) // 259
    (0.00130768281804421 0 -0.00130768281804421) // 260
    (0.00160061584931972 0 -0.000800307924659862) // 261
    (0.00178632794954082 0 0) // 262
    (0.00160061584931972 0 0.000800307924659862) // 263
    (0.00130768281804421 0 0.00130768281804421) // 264
    (0.00148940254008873 0 0.00223410381013309) // 265
    (0.00161544164824003 0 0.00336890575657173) // 266
    (0.0016960478370881 0 0.00452993841120016) // 267
    (0.001752035287106 0 0.00570518470131929) // 268
    (0.00178632794954082 0 0.00686263939613338) // 269
    (0.00178632794954082 0 0.00790842626408892) // 270
    (0.00178632794954082 0 0.00895421313204446) // 271
    (0.00178632794954082 0 0.01) // 272
    (0.00267949192431123 0 -0.01) // 273
    (0.00263821115654489 0 -0.00881626280292404) // 274
    (0.00258779894212717 0 -0.00763779764903034) // 275
    (0.00252484864002508 0 -0.00646657136343634) // 276
    (0.0024440184168112 0 -0.00530566805510932) // 277
    (0.00233642965119345 0 -0.00416021379844229) // 278
    (0.00218615922636867 0 -0.00303940180920791) // 279
    (0.00196152422706632 0 -0.00196152422706632) // 280
    (0.00223410381013309 0 -0.00148940254008873) // 281
    (0.00259466689149725 0 -0.000864888963832416) // 282
    (0.00267949192431123 0 0) // 283
    (0.00259466689149725 0 0.000864888963832416) // 284
    (0.00223410381013309 0 0.00148940254008873) // 285
    (0.00196152422706632 0 0.00196152422706632) // 286
    (0.00218615922636867 0 0.00303940180920791) // 287
    (0.00233642965119345 0 0.00416021379844229) // 288
    (0.0024440184168112 0 0.00530566805510932) // 289
    (0.00252484864002508 0 0.00646657136343634) // 290
    (0.00258779894212717 0 0.00763779764903034) // 291
    (0.00263821115654489 0 0.00881626280292404) // 292
    (0.00267949192431123 0 0.01) // 293
    (0.00354016584472677 0 -0.0095030896803636) // 294
    (0.00346846137455126 0 -0.00833691761606331) // 295
    (0.00338184767367715 0 -0.00717935340012028) // 296
    (0.00327513519356867 0 -0.00603339321977859) // 297
    (0.00314040978492937 0 -0.00490360631126496) // 298
    (0.00296497446971952 0 -0.00379732327826852) // 299
    (0.0027270933482981 0 -0.0027270933482981) // 300
    (0.00303940180920791 0 -0.00218615922636867) // 301
    (0.00336890575657173 0 -0.00161544164824003) // 302
    (0.00372527879226677 0 -0.000893163974770409) // 303
    (0.00372527879226677 0 0) // 304
    (0.00372527879226677 0 0.000893163974770409) // 305
    (0.00336890575657173 0 0.00161544164824003) // 306
    (0.00303940180920791 0 0.00218615922636867) // 307
    (0.0027270933482981 0 0.0027270933482981) // 308
    (0.00296497446971952 0 0.00379732327826852) // 309
    (0.00314040978492937 0 0.00490360631126496) // 310
    (0.00327513519356867 0 0.00603339321977859) // 311
    (0.00338184767367715 0 0.00717935340012028) // 312
    (0.00346846137455126 0 0.00833691761606332) // 313
    (0.00354016584472677 0 0.0095030896803636) // 314
    (0.00431935335821429 0 -0.00905322555970238) // 315
    (0.00421308482208092 0 -0.00790700906818716) // 316
    (0.00408597145512749 0 -0.00677282734535711) // 317
    (0.00393121318602139 0 -0.00565460641422662) // 318
    (0.00373869127828959 0 -0.00455818833002226) // 319
    (0.00349266246952988 0 -0.00349266246952988) // 320
    (0.00379732327826852 0 -0.00296497446971952) // 321
    (0.00416021379844229 0 -0.00233642965119345) // 322
    (0.00452993841120016 0 -0.0016960478370881) // 323
    (0.00477106566022231 0 -0.000893163974770409) // 324
    (0.00477106566022231 0 0) // 325
    (0.00477106566022231 0 0.000893163974770409) // 326
    (0.00452993841120016 0 0.0016960478370881) // 327
    (0.00416021379844229 0 0.00233642965119345) // 328
    (0.00379732327826852 0 0.00296497446971952) // 329
    (0.00349266246952988 0 0.00349266246952988) // 330
    (0.00373869127828959 0 0.00455818833002226) // 331
    (0.00393121318602139 0 0.00565460641422662) // 332
    (0.00408597145512749 0 0.00677282734535711) // 333
    (0.00421308482208092 0 0.00790700906818716) // 334
    (0.00431935335821429 0 0.00905322555970238) // 335
    (0.00502810379089286 0 -0.00864402830660714) // 336
    (0.00488467842299202 0 -0.0075192643219151) // 337
    (0.00471462747713337 0 -0.00640987262182433) // 338
    (0.00450977816855474 0 -0.0053205717658173) // 339
    (0.00425823159076166 0 -0.00425823159076166) // 340
    (0.00455818833002226 0 -0.00373869127828959) // 341
    (0.00490360631126496 0 -0.00314040978492937) // 342
    (0.00530566805510932 0 -0.0024440184168112) // 343
    (0.00570518470131929 0 -0.001752035287106) // 344
    (0.00581685252817785 0 -0.000893163974770409) // 345
    (0.00581685252817785 0 0) // 346
    (0.00581685252817785 0 0.000893163974770409) // 347
    (0.00570518470131929 0 0.001752035287106) // 348
    (0.00530566805510932 0 0.0024440184168112) // 349
    (0.00490360631126496 0 0.00314040978492937) // 350
    (0.00455818833002226 0 0.00373869127828959) // 351
    (0.00425823159076166 0 0.00425823159076166) // 352
    (0.00450977816855474 0 0.0053205717658173) // 353
    (0.00471462747713337 0 0.00640987262182433) // 354
    (0.00488467842299202 0 0.00751926432191511) // 355
    (0.00502810379089286 0 0.00864402830660714) // 356
    (0.00567555518083792 0 -0.00827022207233517) // 357
    (0.00549348368896079 0 -0.00716777043772397) // 358
    (0.00527933152570129 0 -0.00608384058737118) // 359
    (0.00502380071199343 0 -0.00502380071199343) // 360
    (0.0053205717658173 0 -0.00450977816855474) // 361
    (0.00565460641422662 0 -0.00393121318602139) // 362
    (0.00603339321977859 0 -0.00327513519356867) // 363
    (0.00646657136343634 0 -0.00252484864002508) // 364
    (0.00686263939613338 0 -0.00178632794954082) // 365
    (0.00686263939613338 0 -0.000893163974770409) // 366
    (0.00686263939613338 0 0) // 367
    (0.00686263939613338 0 0.000893163974770409) // 368
    (0.00686263939613338 0 0.00178632794954082) // 369
    (0.00646657136343634 0 0.00252484864002508) // 370
    (0.00603339321977859 0 0.00327513519356867) // 371
    (0.00565460641422662 0 0.00393121318602139) // 372
    (0.0053205717658173 0 0.00450977816855474) // 373
    (0.00502380071199343 0 0.00502380071199343) // 374
    (0.00527933152570129 0 0.00608384058737118) // 375
    (0.00549348368896079 0 0.00716777043772397) // 376
    (0.00567555518083792 0 0.00827022207233517) // 377
    (0.00626933041053577 0 -0.00792740578363098) // 378
    (0.00604791266180818 0 -0.006847670721004) // 379
    (0.00578936983322521 0 -0.00578936983322521) // 380
    (0.00608384058737117 0 -0.00527933152570129) // 381
    (0.00640987262182433 0 -0.00471462747713337) // 382
    (0.00677282734535711 0 -0.00408597145512749) // 383
    (0.00717935340012028 0 -0.00338184767367715) // 384
    (0.00763779764903034 0 -0.00258779894212717) // 385
    (0.00790842626408892 0 -0.00178632794954082) // 386
    (0.00790842626408892 0 -0.000893163974770409) // 387
    (0.00790842626408892 0 0) // 388
    (0.00790842626408892 0 0.000893163974770409) // 389
    (0.00790842626408892 0 0.00178632794954082) // 390
    (0.00763779764903034 0 0.00258779894212717) // 391
    (0.00717935340012028 0 0.00338184767367715) // 392
    (0.00677282734535711 0 0.00408597145512749) // 393
    (0.00640987262182433 0 0.00471462747713337) // 394
    (0.00608384058737118 0 0.00527933152570129) // 395
    (0.00578936983322522 0 0.00578936983322522) // 396
    (0.00604791266180818 0 0.006847670721004) // 397
    (0.00626933041053577 0 0.00792740578363098) // 398
    (0.00681583873811688 0 -0.00761187905358766) // 399
    (0.00655493895445699 0 -0.00655493895445699) // 400
    (0.006847670721004 0 -0.00604791266180818) // 401
    (0.00716777043772397 0 -0.00549348368896079) // 402
    (0.00751926432191511 0 -0.00488467842299202) // 403
    (0.00790700906818716 0 -0.00421308482208091) // 404
    (0.00833691761606332 0 -0.00346846137455126) // 405
    (0.00881626280292404 0 -0.00263821115654489) // 406
    (0.00895421313204446 0 -0.00178632794954082) // 407
    (0.00895421313204446 0 -0.000893163974770409) // 408
    (0.00895421313204446 0 0) // 409
    (0.00895421313204446 0 0.000893163974770409) // 410
    (0.00895421313204446 0 0.00178632794954082) // 411
    (0.00881626280292404 0 0.00263821115654489) // 412
    (0.00833691761606331 0 0.00346846137455126) // 413
    (0.00790700906818716 0 0.00421308482208092) // 414
    (0.00751926432191511 0 0.00488467842299202) // 415
    (0.00716777043772397 0 0.00549348368896079) // 416
    (0.006847670721004 0 0.00604791266180818) // 417
    (0.00655493895445699 0 0.00655493895445699) // 418
    (0.00681583873811688 0 0.00761187905358766) // 419
    (0.00732050807568877 0 -0.00732050807568877) // 420
    (0.00761187905358766 0 -0.00681583873811688) // 421
    (0.00792740578363098 0 -0.00626933041053577) // 422
    (0.00827022207233517 0 -0.00567555518083792) // 423
    (0.00864402830660715 0 -0.00502810379089286) // 424
    (0.00905322555970238 0 -0.00431935335821429) // 425
    (0.0095030896803636 0 -0.00354016584472677) // 426
    (0.01 0 -0.00267949192431123) // 427
    (0.01 0 -0.00178632794954082) // 428
    (0.01 0 -0.000893163974770409) // 429
    (0.01 0 0) // 430
    (0.01 0 0.000893163974770409) // 431
    (0.01 0 0.00178632794954082) // 432
    (0.01 0 0.00267949192431123) // 433
    (0.0095030896803636 0 0.00354016584472677) // 434
    (0.00905322555970238 0 0.00431935335821429) // 435
    (0.00864402830660714 0 0.00502810379089286) // 436
    (0.00827022207233517 0 0.00567555518083792) // 437
    (0.00792740578363098 0 0.00626933041053577) // 438
    (0.00761187905358766 0 0.00681583873811688) // 439
    (0.00732050807568877 0 0.00732050807568877) // 440
    (-0.0292820323027551 0.05 -0.0292820323027551) // 441
    (-0.0295551105094175 0.05 -0.0288090469743759) // 442
    (-0.0298333300049873 0.05 -0.0283271566723929) // 443
    (-0.0301168373631023 0.05 -0.0278361075238182) // 444
    (-0.0304057847824362 0.05 -0.0273356359128158) // 445
    (-0.0307003303591523 0.05 -0.026825468008799) // 446
    (-0.0310006383753461 0.05 -0.026305319266831) // 447
    (-0.0313068796045865 0.05 -0.0257748938984143) // 448
    (-0.0316192316357456 0.05 -0.0252338843105994) // 449
    (-0.0319378792164102 0.05 -0.0246819705111794) // 450
    (-0.0322630146172692 0.05 -0.0241188194775525) // 451
    (-0.0325948380189868 0.05 -0.0235440844866372) // 452
    (-0.0329335579231984 0.05 -0.0229574044030079) // 453
    (-0.0332793915894009 0.05 -0.0223584029221773) // 454
    (-0.0336325654996619 0.05 -0.0217466877656974) // 455
    (-0.0339933158532365 0.05 -0.0211218498244577) // 456
    (-0.0343618890933614 0.05 -0.0204834622462511) // 457
    (-0.034738542468695 0.05 -0.019831079463331) // 458
    (-0.0351235446320922 0.05 -0.0191642361553031) // 459
    (-0.0355171762796417 0.05 -0.0184824461422804) // 460
    (-0.0359197308331612 0.05 -0.0177852012027665) // 461
    (-0.0363315151696368 0.05 -0.0170719698102297) // 462
    (-0.0367528504014187 0.05 -0.0163421957817646) // 463
    (-0.037184072711341 0.05 -0.015595296831622) // 464
    (-0.0376255342473303 0.05 -0.0148306630217011) // 465
    (-0.0380776040815066 0.05 -0.0140476551003386) // 466
    (-0.0385406692392664 0.05 -0.0132456027198837) // 467
    (-0.0390151358043791 0.05 -0.0124238025226157) // 468
    (-0.0395014301067283 0.05 -0.0115815160835156) // 469
    (-0.04 0.05 -0.0107179676972449) // 470
    (-0.04 0.05 -0.01) // 471
    (-0.04 0.05 -0.00895421313204446) // 472
    (-0.04 0.05 -0.00790842626408892) // 473
    (-0.04 0.05 -0.00686263939613338) // 474
    (-0.04 0.05 -0.00581685252817784) // 475
    (-0.04 0.05 -0.00477106566022231) // 476
    (-0.04 0.05 -0.00372527879226677) // 477
    (-0.04 0.05 -0.00267949192431123) // 478
    (-0.04 0.05 -0.00178632794954082) // 479
    (-0.04 0.05 -0.000893163974770409) // 480
    (-0.04 0.05 0) // 481
    (-0.04 0.05 0.000893163974770409) // 482
    (-0.04 0.05 0.00178632794954082) // 483
    (-0.04 0.05 0.00267949192431123) // 484
    (-0.04 0.05 0.00372527879226677) // 485
    (-0.04 0.05 0.00477106566022231) // 486
    (-0.04 0.05 0.00581685252817785) // 487
    (-0.04 0.05 0.00686263939613338) // 488
    (-0.04 0.05 0.00790842626408892) // 489
    (-0.04 0.05 0.00895421313204446) // 490
    (-0.04 0.05 0.01) // 491
    (-0.04 0.05 0.0107179676972449) // 492
    (-0.0395014301067283 0.05 0.0115815160835156) // 493
    (-0.0390151358043791 0.05 0.0124238025226157) // 494
    (-0.0385406692392664 0.05 0.0132456027198837) // 495
    (-0.0380776040815066 0.05 0.0140476551003386) // 496
    (-0.0376255342473303 0.05 0.0148306630217011) // 497
    (-0.037184072711341 0.05 0.015595296831622) // 498
    (-0.0367528504014187 0.05 0.0163421957817646) // 499
    (-0.0363315151696368 0.05 0.0170719698102297) // 500
    (-0.0359197308331612 0.05 0.0177852012027665) // 501
    (-0.0355171762796417 0.05 0.0184824461422804) // 502
    (-0.0351235446320922 0.05 0.0191642361553031) // 503
    (-0.034738542468695 0.05 0.019831079463331) // 504
    (-0.0343618890933614 0.05 0.0204834622462511) // 505
    (-0.0339933158532365 0.05 0.0211218498244577) // 506
    (-0.0336325654996619 0.05 0.0217466877656974) // 507
    (-0.0332793915894009 0.05 0.0223584029221773) // 508
    (-0.0329335579231984 0.05 0.0229574044030079) // 509
    (-0.0325948380189868 0.05 0.0235440844866372) // 510
    (-0.0322630146172692 0.05 0.0241188194775525) // 511
    (-0.0319378792164102 0.05 0.0246819705111794) // 512
    (-0.0316192316357456 0.05 0.0252338843105994) // 513
    (-0.0313068796045865 0.05 0.0257748938984143) // 514
    (-0.0310006383753461 0.05 0.026305319266831) // 515
    (-0.0307003303591523 0.05 0.026825468008799) // 516
    (-0.0304057847824362 0.05 0.0273356359128158) // 517
    (-0.0301168373631023 0.05 0.0278361075238182) // 518
    (-0.0298333300049873 0.05 0.0283271566723929) // 519
    (-0.0295551105094175 0.05 0.0288090469743759) // 520
    (-0.0292820323027551 0.05 0.0292820323027551) // 521
    (-0.0288090469743759 0.05 -0.0295551105094175) // 522
    (-0.0285428621167382 0.05 -0.0285428621167382) // 523
    (-0.0288160062900901 0.05 -0.0280697625307013) // 524
    (-0.0290944287431606 0.05 -0.0275875206960152) // 525
    (-0.0293782839660701 0.05 -0.0270958690279421) // 526
    (-0.0296677325373742 0.05 -0.0265945293962652) // 527
    (-0.0299629414269787 0.05 -0.0260832126006244) // 528
    (-0.0302640843173211 0.05 -0.0255616178142131) // 529
    (-0.0305713419441177 0.05 -0.0250294319935884) // 530
    (-0.0308849024580792 0.05 -0.0244863292521597) // 531
    (-0.0312049618091179 0.05 -0.0239319701947232) // 532
    (-0.0315317241546937 0.05 -0.0233660012101855) // 533
    (-0.0318654022940878 0.05 -0.0227880537193797) // 534
    (-0.0322062181305452 0.05 -0.0221977433746116) // 535
    (-0.0325544031633938 0.05 -0.0215946692072828) // 536
    (-0.0329101990124361 0.05 -0.0209784127196194) // 537
    (-0.0332738579771069 0.05 -0.0203485369161815) // 538
    (-0.0336456436331183 0.05 -0.0197045852704444) // 539
    (-0.0340258314695558 0.05 -0.0190460806213151) // 540
    (-0.0344147095696624 0.05 -0.0183725239939795) // 541
    (-0.0348125793388469 0.05 -0.0176833933389563) // 542
    (-0.0352197562837808 0.05 -0.0169781421826601) // 543
    (-0.0356365708468183 0.05 -0.0162561981821446) // 544
    (-0.0360633693003759 0.05 -0.015516961575991) // 545
    (-0.0365005147063605 0.05 -0.0147598035225303) // 546
    (-0.0369483879462317 0.05 -0.0139840643157228) // 547
    (-0.037407388827842 0.05 -0.0131890514680549) // 548
    (-0.0378779372758144 0.05 -0.0123740376487442) // 549
    (-0.0383604746129072 0.05 -0.0115382584643503) // 550
    (-0.0388554649405856 0.05 -0.0106809100675562) // 551